LTspice 24.1.1 for Windows
Circuit: C:\Users\CHAMA COMPUTERS\Desktop\Analog Computer Simulation\Analog Subtractor\Subtractor Circuit.net
Start Time: Thu Sep 18 17:48:39 2025
solver = Normal
Maximum thread count: 16
tnom = 27
temp = 27
method = trap
Direct Newton iteration for .op point succeeded.
Total elapsed time: 0.141 seconds.

Files loaded:
C:\Users\CHAMA COMPUTERS\Desktop\Analog Computer Simulation\Analog Subtractor\Subtractor Circuit.net
C:\Users\CHAMA COMPUTERS\AppData\Local\LTspice\lib\sub\UniversalOpAmp5.lib

