LTspice 24.1.1 for Windows
Circuit: C:\Users\CHAMA COMPUTERS\Desktop\Analog Computer Simulation\Multilier with Gilbert cell\Gilbert cell multiplier.net
Start Time: Thu Sep 18 17:14:13 2025
solver = Normal
Maximum thread count: 16
tnom = 27
temp = 27
method = trap
Direct Newton iteration for .op point succeeded.
Total elapsed time: 122.301 seconds.

Files loaded:
C:\Users\CHAMA COMPUTERS\Desktop\Analog Computer Simulation\Multilier with Gilbert cell\Gilbert cell multiplier.net
C:\Users\CHAMA COMPUTERS\AppData\Local\LTspice\lib\cmp\standard.bjt
C:\Users\CHAMA COMPUTERS\AppData\Local\LTspice\lib\sub\UniversalOpAmp5.lib

